% SU2 configuration file                                                       %
% Case description: Axisymmetric steady state turbulent jet     %                                                
%
% ------------- DIRECT, ADJOINT, AND LINEARIZED PROBLEM DEFINITION ------------%
%
SOLVER= EULER
KIND_TURB_MODEL= SST
RESTART_SOL= YES
AXISYMMETRIC= YES
MATH_PROBLEM= DIRECT
MARKER_TAG_1 = inlet
MARKER_TAG_2 = outlet
MARKER_TAG_3 = symmetry
MARKER_TAG_4 = wall

% -------------------- INCOMPRESSIBLE FREE-STREAM DEFINITION --------------------%
%
MACH_NUMBER= 1E-9
INIT_OPTION= TD_CONDITIONS
FREESTREAM_OPTION= TEMPERATURE_FS
FREESTREAM_PRESSURE= 101325
FREESTREAM_TEMPERATURE= 298.15
INC_DENSITY_MODEL= CONSTANT
%
% Solve the energy equation in the incompressible flow solver
INC_ENERGY_EQUATION = NO
%
% Initial density for incompressible flows
% (1.2886 kg/m^3 by default (air), 998.2 Kg/m^3 (water))
INC_DENSITY_INIT= 998.2
%
% Initial velocity for incompressible flows (1.0,0,0 m/s by default)
INC_VELOCITY_INIT= ( 1.0, 0.0, 0.0 )
%
% Non-dimensionalization scheme for incompressible flows. Options are
% INITIAL_VALUES (default), REFERENCE_VALUES, or DIMENSIONAL.
% INC_*_REF values are ignored unless REFERENCE_VALUES is chosen.
INC_NONDIM= INITIAL_VALUES
%
% Reference density for incompressible flows (1.0 kg/m^3 by default)
INC_DENSITY_REF= 1.0
%
% Reference velocity for incompressible flows (1.0 m/s by default)
INC_VELOCITY_REF= 1.0
%
% List of inlet types for incompressible flows. List length must
% match number of inlet markers. Options: VELOCITY_INLET, PRESSURE_INLET.
INC_INLET_TYPE= VELOCITY_INLET
%
% Damping coefficient for iterative updates at pressure inlets. (0.1 by default)
INC_INLET_DAMPING= 0.1
%
% Impose inlet velocity magnitude in the direction of the normal of the inlet face
INC_INLET_USENORMAL= NO
%
% List of outlet types for incompressible flows. List length must
% match number of outlet markers. Options: PRESSURE_OUTLET, MASS_FLOW_OUTLET
INC_OUTLET_TYPE= PRESSURE_OUTLET
%
% Bulk Modulus for computing the Mach number
BULK_MODULUS= 1.42E5
% Epsilon^2 multipier in Beta calculation for incompressible preconditioner.
BETA_FACTOR= 4.1
%
FLUID_MODEL= CONSTANT_DENSITY

% --------------------------- THERMAL CONDUCTIVITY MODEL ----------------------%
%
CONDUCTIVITY_MODEL= CONSTANT_PRANDTL
PRANDTL_LAM= 0.72
PRANDTL_TURB= 0.90

% -------------------- BOUNDARY CONDITION DEFINITION --------------------------%
MARKER_SYM= ( SYMMETRY )
MARKER_MONITORING = (MARKER_TAG_4)
MARKER_INLET= (inlet, 302.4, 101325.0, 1.0, 0.0, 0.0 )
MARKER_OUTLET= (outlet, 101325.0, farfield, 101325.0 )
%
% Symmetry boundary marker(s) (NONE = no marker)
MARKER_SYM= (symmetry)
%
% Marker(s) of the surface to be plotted or designed
MARKER_PLOTTING= (wall)
%
% Marker(s) of the surface where the functional (Cd, Cl, etc.) will be evaluated
MARKER_MONITORING= (wall)

% ------------- COMMON PARAMETERS DEFINING THE NUMERICAL METHOD ---------------%
%
NUM_METHOD_GRAD= GREEN_GAUSS
CFL_NUMBER= 1000.0
CFL_ADAPT= NO
MAX_DELTA_TIME= 1E6
OBJECTIVE_FUNCTION= DRAG
% Physical Constants
GAMMA_VALUE = 1.4
R_VALUE = 287.0
C_V_VALUE = 717.5
C_P_VALUE = 1005.0

% Numerical Parameters
CFL_NUMBER = 0.5
% ----------- SLOPE LIMITER AND DISSIPATION SENSOR DEFINITION -----------------%
%
MUSCL_FLOW= YES
SLOPE_LIMITER_FLOW= NONE

% ------------------------ LINEAR SOLVER DEFINITION ---------------------------%
%
LINEAR_SOLVER= FGMRES
LINEAR_SOLVER_PREC= ILU
LINEAR_SOLVER_ILU_FILL_IN= 0
LINEAR_SOLVER_ERROR= 0.01
LINEAR_SOLVER_ITER= 10

% -------------------- FLOW NUMERICAL METHOD DEFINITION -----------------------%
%
CONV_NUM_METHOD_FLOW= ROE
ENTROPY_FIX_COEFF= 0.1
TIME_DISCRE_FLOW= EULER_IMPLICIT

% -------------------- TURBULENT NUMERICAL METHOD DEFINITION ------------------%
%
CONV_NUM_METHOD_TURB= SCALAR_UPWIND
TIME_DISCRE_TURB= EULER_IMPLICIT
CFL_REDUCTION_TURB= 1.0

% --------------------------- CONVERGENCE PARAMETERS --------------------------%
%
ITER= 3000
CONV_RESIDUAL_MINVAL= -12
CONV_STARTITER= 10

% ------------------------- INPUT/OUTPUT INFORMATION --------------------------%
%
MESH_FILENAME= jet_geometry.su2
MESH_FORMAT= SU2
MESH_OUT_FILENAME= mesh_out.su2
SOLUTION_FILENAME= solution_flow.dat
TABULAR_FORMAT= CSV
CONV_FILENAME= history
BREAKDOWN_FILENAME= forces_breakdown.dat
RESTART_FILENAME= restart_flow.dat
VOLUME_FILENAME= flow
SURFACE_FILENAME= surface_flow
OUTPUT_WRT_FREQ= 50
SCREEN_OUTPUT = (INNER_ITER, RMS_PRESSURE, RMS_VELOCITY-X, LIFT, DRAG)
