% ----------------
% Mesh Definition: steady state turbulent incompressible air jet case
% ----------------
MESH_FILENAME = jet_geometry.su2
MESH_FORMAT = SU2
AXISYMMETRIC = YES
RESTART_SOL= NO
% ----------------
% Solver Settings
% ----------------
SOLVER = EULER
MATH_PROBLEM = DIRECT
INNER_ITER = 9999
TIME_ITER = 1

CFL_NUMBER = 0.5
GRID_MOVEMENT= NONE
SYSTEM_MEASUREMENTS= SI
INIT_OPTION= REYNOLDS

% ----------------
% Turbulence Model
% ----------------
KIND_TURB_MODEL=SST
SST_OPTIONS=V1994m
HROUGHNESS= 1.0e-6
GRAVITY_FORCE= NO

REF_DIMENSIONALIZATION= DIMENSIONAL

% ----------------
% Boundary Conditions
% ----------------
MARKER_EULER= ( walls )
MARKER_SYM= (symmetry )
MARKER_INLET = (inlet, 300, 10, 1.0, 0.0, 0.0)
MARKER_OUTLET= (outlet, 101325.0 )
%

FLUID_MODEL= STANDARD_AIR
INC_DENSITY_MODEL= CONSTANT

% Solve the energy equation in the incompressible flow solver
INC_ENERGY_EQUATION = NO

% Initial density for incompressible flows
% (1.2886 kg/m^3 by default (air), 998.2 Kg/m^3 (water))
INC_DENSITY_INIT= 1.2886

% Initial velocity for incompressible flows (1.0,0,0 m/s by default)
INC_VELOCITY_INIT= ( 2.0, 0.0, 0.0 )

% List of inlet types for incompressible flows.Options: VELOCITY_INLET, PRESSURE_INLET.
INC_INLET_TYPE= VELOCITY_INLET

% Impose inlet velocity magnitude in the direction of the normal of the inlet face
INC_INLET_USENORMAL= YES

% List of outlet types for incompressible flows.Options: PRESSURE_OUTLET, MASS_FLOW_OUTLET
INC_OUTLET_TYPE= PRESSURE_OUTLET
%
% Damping coefficient for iterative updates at mass flow outlets. (0.1 by default)
INC_OUTLET_DAMPING= 0.1
%
% Bulk Modulus for computing the Mach number
BULK_MODULUS= 1.42E5

% Epsilon^2 multipier in Beta calculation for incompressible preconditioner.
BETA_FACTOR= 4.1
%
MOLECULAR_WEIGHT= 28.96

% ----------------
% Solution Control
% ----------------
CONV_NUM_METHOD_FLOW = JST
%
% Reference length for moment non-dimensional coefficients (m or in)
REF_LENGTH= 1.0
%
% Reference velocity (incompressible only)
REF_VELOCITY= 1.0
%
% Reference viscosity (incompressible only)
REF_VISCOSITY= 1.0
% ----------------
% Output Settings
% ----------------
MESH_OUT_FILENAME= mesh_out.su2
SOLUTION_FILENAME= solution_flow.dat
SOLUTION_ADJ_FILENAME= solution_adj.dat
TABULAR_FORMAT= CSV
OUTPUT_FILES= (CSV)
OUTER_ITER = 1
RESTART_ITER = 0

% ----------------
% Physical Constants
% ----------------
GAMMA_VALUE = 1.4
GAS_CONSTANT= 287.058
SPECIFIC_HEAT_CP= 1004.703
PRANDTL_TURB=0.90
ACENTRIC_FACTOR= 0.035
% Writing frequency for screen output
SCREEN_WRT_FREQ_INNER= 1
%
SCREEN_WRT_FREQ_OUTER= 1
%
SCREEN_WRT_FREQ_TIME= 1
%
% Writing frequency for history output
HISTORY_WRT_FREQ_INNER= 1
%
HISTORY_WRT_FREQ_OUTER= 1
%
HISTORY_WRT_FREQ_TIME= 1
