% ----------------
% Mesh Definition
% ----------------
MESH_FILENAME = jet_geometry.su2
MESH_FORMAT = SU2
AXISYMMETRIC = YES
NPOIN = 256
NELEM = 0
NMARK = 4
MARKER_EULER = ( Inlet, Outlet, Symmetry, Wall )

% ----------------
% Solver Settings
% ----------------
PHYSICAL_PROBLEM = NAVIER_STOKES
MATH_PROBLEM = DIRECT
STABILITY_ITER = 50
TIME_ITER = 10000
CFL_NUMBER = 0.5
MESH_MOTION = NO

% ----------------
% Turbulence Model
% ----------------
TURB_MODEL = SST
KIND_TURB_MODEL = TURB_RANS
INITIAL_CONDITION_TURB_K = 1.0
INITIAL_CONDITION_TURB_OMEGA = 1.0

% ----------------
% Boundary Conditions
% ----------------
MARKER_TAG_1 = Inlet
MARKER_TAG_2 = Outlet
MARKER_TAG_3 = Symmetry
MARKER_TAG_4 = Wall

MARKER_EULER_TYPE = ( INFLOW, OUTFLOW, SYMMETRY, WALL )

INFLOW_TYPE = AXISYMMETRIC_INVISCID
VELOCITY_FAR = 100.0
MACH_FAR = 0.2
TEMPERATURE_FAR = 300.0
KINEMATIC_VISCOSITY = 1.5e-5

OUTFLOW_TYPE = EXTRAPOLATION

SYMMETRY_TYPE = SLIP
WALL_TYPE = ISOTHERMAL
TEMPERATURE_WALL = 300.0

% ----------------
% Solution Control
% ----------------
CONV_NUM_METHOD_FLOW = JST
RESIDUAL_TARGET = 1e-6
STARTCONV_ON_ITER = 10
CONV_FIELD = RES_DENSITY

% ----------------
% Output Settings
% ----------------
OUTPUT_FORMAT = TECPLOT
OUTPUT_ITER = 500
RESTART_ITER = 1000

% ----------------
% Physical Constants
% ----------------
GAMMA_VALUE = 1.4
R_VALUE = 287.0
C_V_VALUE = 717.5
C_P_VALUE = 1005.0
PRANDTL_LAW = CONSTANT_PRANDTL
PRANDTL_NUMBER = 0.72
SUTHERLAND_LAW = CONSTANT_SUTHERLAND
SUTHERLAND_CONSTANT = 110.4
