
% SU2 configuration file                                                       %
% Case description: spatially varying wall temperature for a steady-state compressible turbulent flat plate                  


% ------------- DIRECT, ADJOINT, AND LINEARIZED PROBLEM DEFINITION ------------%
%
SOLVER= RANS
KIND_TURB_MODEL= SST
SST_OPTIONS= V2003m
MATH_PROBLEM= DIRECT
AXISYMMETRIC= NO
RESTART_SOL= NO
DISCARD_INFILES= NO
SYSTEM_MEASUREMENTS= SI

% -------------------- COMPRESSIBLE FREE-STREAM DEFINITION --------------------%
%
MACH_NUMBER= 0.075
AOA= 0.0
SIDESLIP_ANGLE= 0.0
INIT_OPTION= TD_CONDITIONS
FREESTREAM_OPTION= TEMPERATURE_FS
FREESTREAM_PRESSURE= 101325.0
FREESTREAM_TEMPERATURE= 293.15
REF_DIMENSIONALIZATION= DIMENSIONAL

% ---------------------- REFERENCE VALUE DEFINITION ---------------------------%
%
REF_ORIGIN_MOMENT_X = -0.0028
REF_ORIGIN_MOMENT_Y = 0.00
REF_ORIGIN_MOMENT_Z = 0.00
REF_LENGTH= 0.035
REF_AREA= 0.035
SEMI_SPAN= 0.0

% ---- IDEAL GAS, POLYTROPIC, VAN DER WAALS AND PENG ROBINSON CONSTANTS -------%
%
FLUID_MODEL= STANDARD_AIR
GAMMA_VALUE= 1.345
GAS_CONSTANT= 287.058


% --------------------------- VISCOSITY MODEL ---------------------------------%
%
VISCOSITY_MODEL= SUTHERLAND
MU_REF= 1.716E-5
MU_T_REF= 273.15
SUTHERLAND_CONSTANT= 110.4
MU_CONSTANT= 1.21409E-05

% --------------------------- THERMAL CONDUCTIVITY MODEL ----------------------%
%
CONDUCTIVITY_MODEL= CONSTANT_PRANDTL
THERMAL_CONDUCTIVITY_CONSTANT= 0.0257
PRANDTL_LAM= 0.72
PRANDTL_TURB= 0.90


% ----------------------- BODY FORCE DEFINITION -------------------------------%
%
BODY_FORCE= NO
BODY_FORCE_VECTOR= ( 0.0, 0.0, 0.0 )

% -------------------- BOUNDARY CONDITION DEFINITION --------------------------%
%
MARKER_ISOTHERMAL= ( plate, 293 )
%MARKER_SYM= ( symmetry )
MARKER_FAR= ( farfield )

% ------------------------ SURFACES IDENTIFICATION ----------------------------%
%
MARKER_PLOTTING = ( plate )
MARKER_MONITORING = ( plate )
MARKER_PYTHON_CUSTOM = (plate)
MARKER_DESIGNING = ( NONE )
MARKER_ANALYZE = ( NONE )
MARKER_ANALYZE_AVERAGE = MASSFLUX

% ------------- COMMON PARAMETERS DEFINING THE NUMERICAL METHOD ---------------%
%
NUM_METHOD_GRAD= WEIGHTED_LEAST_SQUARES
CFL_NUMBER= 0.6
CFL_ADAPT= NO
CFL_ADAPT_PARAM= ( 0.1, 2.0, 10.0, 1000.0 )
MAX_DELTA_TIME= 1E6
MUSCL_TURB= NO

% ----------- SLOPE LIMITER AND DISSIPATION SENSOR DEFINITION -----------------%
%
MUSCL_FLOW= NO
SLOPE_LIMITER_FLOW= VENKATAKRISHNAN_WANG
VENKAT_LIMITER_COEFF= 0.01

% ------------------------ LINEAR SOLVER DEFINITION ---------------------------%
%
LINEAR_SOLVER= FGMRES
LINEAR_SOLVER_PREC= ILU
LINEAR_SOLVER_ILU_FILL_IN= 0
LINEAR_SOLVER_ERROR= 1E-6
LINEAR_SOLVER_ITER= 10

% -------------------------- MULTIGRID PARAMETERS -----------------------------%
%
MGLEVEL= 0
MGCYCLE= V_CYCLE
MG_PRE_SMOOTH= ( 1, 1, 2, 2 )
MG_POST_SMOOTH= ( 0, 0, 0, 0 )
MG_CORRECTION_SMOOTH= ( 0, 0, 0, 0 )
MG_DAMP_RESTRICTION= 0.7
MG_DAMP_PROLONGATION= 0.7

% -------------------- FLOW NUMERICAL METHOD DEFINITION -----------------------%
%
CONV_NUM_METHOD_FLOW= JST
ENTROPY_FIX_COEFF= 0.01
TIME_DISCRE_FLOW= EULER_IMPLICIT

% -------------------- TURBULENT NUMERICAL METHOD DEFINITION ------------------%
%
CONV_NUM_METHOD_TURB= SCALAR_UPWIND
TIME_DISCRE_TURB= EULER_IMPLICIT
CFL_REDUCTION_TURB= 1.0


% --------------------------- CONVERGENCE PARAMETERS --------------------------%
CONV_RESIDUAL_MINVAL= -12
ITER= 1000000
CONV_STARTITER= 10

% ------------------------- INPUT/OUTPUT INFORMATION --------------------------%
%
MESH_FILENAME= mesh.su2
MESH_FORMAT= SU2
MESH_OUT_FILENAME= mesh_out.su2
SOLUTION_FILENAME= solution_flow.dat
TABULAR_FORMAT= CSV
CONV_FILENAME= history
RESTART_FILENAME= restart_flow.dat
VOLUME_FILENAME= flow
VOLUME_OUTPUT= (HEAT_FLUX,TEMPERATURE,PRESSURE,Y_PLUS, MACH NUMBER)
OUTPUT_FILES=(PARAVIEW, TECPLOT)

SURFACE_FILENAME= surface_flow

OUTPUT_WRT_FREQ= 1
SCREEN_OUTPUT= (INNER_ITER, RMS_DENSITY, RMS_TKE, RMS_DISSIPATION)
